Version 4
SHEET 1 1240 700
WIRE 496 -1248 464 -1248
WIRE 656 -1248 576 -1248
WIRE 112 -1152 112 -1168
WIRE 240 -1152 240 -1168
WIRE 576 -1136 576 -1152
WIRE 464 -1120 464 -1248
WIRE 464 -1120 384 -1120
WIRE 544 -1120 464 -1120
WIRE 656 -1104 656 -1248
WIRE 656 -1104 608 -1104
WIRE 544 -1088 496 -1088
WIRE 384 -1072 384 -1120
WIRE 112 -1056 112 -1072
WIRE 240 -1056 240 -1072
WIRE 576 -1056 576 -1072
WIRE 496 -976 496 -1088
WIRE 560 -976 496 -976
WIRE 656 -976 656 -1104
WIRE 656 -976 640 -976
WIRE 384 -944 384 -992
WIRE 496 -928 496 -976
WIRE 496 -800 496 -848
WIRE 384 -752 384 -864
WIRE 384 -624 384 -672
FLAG 112 -1168 +V
FLAG 112 -1056 0
FLAG 688 -1104 OUT
FLAG 576 -1152 +V
FLAG 240 -1168 -V
FLAG 576 -1056 -V
FLAG 496 -800 0
FLAG 240 -1056 0
FLAG 384 -624 0
SYMBOL voltage 112 -1168 R0
WINDOW 123 0 0 Left 2
WINDOW 39 0 0 Left 2
SYMATTR InstName V1
SYMATTR Value 15
SYMBOL voltage 384 -848 R180
WINDOW 123 0 0 Left 0
WINDOW 39 0 0 Left 0
SYMATTR InstName Vin
SYMATTR Value PULSE(0 10 1ms 10n 10n 0.415ms 12ms)
SYMBOL res 480 -944 R0
SYMATTR InstName R1
SYMATTR Value 10K
SYMBOL res 656 -992 R90
WINDOW 0 0 56 VBottom 2
WINDOW 3 32 56 VTop 2
SYMATTR InstName R2
SYMATTR Value 10K
SYMBOL Opamps\\OP747 576 -1168 R0
WINDOW 0 12 37 Left 2
WINDOW 3 27 89 Left 2
SYMATTR InstName U1
SYMBOL voltage 240 -1168 R0
WINDOW 123 24 146 Left 2
WINDOW 39 24 125 Left 2
SYMATTR InstName V2
SYMATTR Value -15
SYMBOL ind 368 -1088 R0
SYMATTR InstName L1
SYMATTR Value 1
SYMBOL res 592 -1264 R90
WINDOW 0 0 56 VBottom 2
WINDOW 3 32 56 VTop 2
SYMATTR InstName Rf
SYMATTR Value 10K
SYMBOL voltage 384 -768 R0
WINDOW 123 0 0 Left 0
WINDOW 39 0 0 Left 0
SYMATTR InstName Vin1
SYMATTR Value PULSE(0 10 6ms 10n 10n 0.415ms 12ms)
TEXT 736 -952 Left 2 !.tran 50m
TEXT 712 -912 Left 2 !.ic i(L1)=-1.5m v(n002)=-15 v(n001)=0
